Version 4.1
SHEET 1 1180 1304
WIRE 544 -304 496 -304
WIRE -1152 -272 -1152 -304
WIRE -1024 -272 -1024 -304
WIRE -832 -272 -832 -304
WIRE -704 -272 -704 -304
WIRE 544 -272 544 -304
WIRE 496 -256 496 -304
WIRE -1152 -160 -1152 -192
WIRE -1024 -160 -1024 -192
WIRE -832 -160 -832 -192
WIRE -704 -160 -704 -192
WIRE 496 -128 496 -176
WIRE 544 -128 496 -128
WIRE 672 -128 624 -128
WIRE 256 -112 256 -176
WIRE 496 -16 496 -128
WIRE 544 -16 496 -16
WIRE 672 0 672 -128
WIRE 672 0 608 0
WIRE 720 0 672 0
WIRE 256 16 256 -32
WIRE 368 16 256 16
WIRE 512 16 432 16
WIRE 544 16 512 16
WIRE 256 48 256 16
WIRE 512 80 512 16
WIRE -800 96 -944 96
WIRE 192 96 48 96
WIRE -880 160 -880 144
WIRE -944 176 -944 96
WIRE -912 176 -944 176
WIRE -800 192 -800 96
WIRE -800 192 -848 192
WIRE -752 192 -800 192
WIRE -1088 208 -1152 208
WIRE -944 208 -1008 208
WIRE -912 208 -944 208
WIRE 512 208 512 160
WIRE 256 224 256 144
WIRE 352 224 256 224
WIRE -1152 240 -1152 208
WIRE -944 240 -944 208
WIRE 352 256 352 224
WIRE -1152 352 -1152 320
WIRE -944 352 -944 320
WIRE 352 352 352 320
WIRE 256 400 256 224
WIRE -16 416 -16 400
WIRE -48 432 -128 432
WIRE 64 448 16 448
WIRE 192 448 144 448
WIRE -48 464 -240 464
WIRE -128 544 -128 432
WIRE 256 544 256 496
WIRE 256 544 -128 544
WIRE 256 576 256 544
WIRE -1168 720 -1168 688
WIRE 256 720 256 656
WIRE -1168 816 -1168 800
WIRE -1072 816 -1168 816
WIRE -896 816 -992 816
WIRE -1168 832 -1168 816
WIRE -816 848 -848 848
WIRE -704 848 -736 848
WIRE -1168 944 -1168 912
WIRE -1280 992 -1328 992
WIRE -1168 992 -1200 992
WIRE -1072 992 -1168 992
WIRE -896 992 -896 816
WIRE -896 992 -992 992
WIRE -848 992 -848 848
WIRE -848 992 -896 992
WIRE -816 992 -848 992
WIRE -704 1008 -704 848
WIRE -704 1008 -752 1008
WIRE -624 1008 -704 1008
WIRE -1328 1024 -1328 992
WIRE -1168 1024 -1168 992
WIRE -816 1024 -848 1024
WIRE -848 1056 -848 1024
WIRE -1328 1136 -1328 1104
WIRE -1168 1136 -1168 1104
FLAG -1152 352 0
FLAG -832 -160 0
FLAG -704 -160 0
FLAG -832 -304 VCC
FLAG -704 -304 VEE
FLAG -16 400 VCC_OP
FLAG -16 480 VEE_OP
FLAG -784 1040 VEE_OP
FLAG -784 976 VCC_OP
FLAG 256 720 VEE
FLAG 256 -176 VCC
FLAG -1328 1136 0
FLAG 512 208 0
FLAG 576 -32 VCC_OP
FLAG 576 32 VEE_OP
FLAG 352 352 0
FLAG -1152 -160 0
FLAG -1024 -160 0
FLAG -1152 -304 VCC_OP
FLAG -1024 -304 VEE_OP
FLAG 544 -272 0
FLAG -944 352 0
FLAG -880 144 VCC_OP
FLAG -880 224 VEE_OP
FLAG -752 192 SIGNAL
FLAG 48 96 SIGNAL
FLAG -1168 1136 0
FLAG -240 464 VCTL
FLAG -1168 944 0
FLAG -1168 688 VCC
FLAG -848 1056 0
FLAG -624 1008 VCTL
SYMBOL voltage -1152 224 R0
WINDOW 0 -70 13 Left 2
WINDOW 3 -205 105 Left 2
WINDOW 123 0 0 Left 0
WINDOW 39 0 0 Left 0
SYMATTR InstName V1
SYMATTR Value SINE(0 3.3 1k)
SYMBOL npn 192 48 R0
SYMATTR InstName Q1
SYMBOL npn 192 400 R0
SYMATTR InstName Q2
SYMBOL OpAmps\\opamp2 -16 384 R0
WINDOW 3 -127 8 Left 2
SYMATTR InstName U1
SYMATTR Value TL072
SYMBOL voltage -832 -288 R0
WINDOW 123 0 0 Left 0
WINDOW 39 0 0 Left 0
SYMATTR InstName V2
SYMATTR Value 12
SYMBOL voltage -704 -288 R0
WINDOW 123 0 0 Left 0
WINDOW 39 0 0 Left 0
SYMATTR InstName V3
SYMATTR Value -12
SYMBOL OpAmps\\opamp2 -784 944 R0
SYMATTR InstName U2
SYMATTR Value TL072
SYMBOL res 240 560 R0
SYMATTR InstName R1
SYMATTR Value 1k
SYMBOL res 160 432 R90
WINDOW 0 0 56 VBottom 2
WINDOW 3 32 56 VTop 2
SYMATTR InstName R2
SYMATTR Value 100
SYMBOL res 240 -128 R0
SYMATTR InstName R3
SYMATTR Value 1k
SYMBOL res -1184 976 R90
WINDOW 0 0 56 VBottom 2
WINDOW 3 32 56 VTop 2
SYMATTR InstName R4
SYMATTR Value 2k
SYMBOL voltage -1328 1008 R0
WINDOW 123 0 0 Left 0
WINDOW 39 0 0 Left 0
SYMATTR InstName V4
SYMATTR Value 1.4
SYMBOL cap 432 0 R90
WINDOW 0 0 32 VBottom 2
WINDOW 3 32 32 VTop 2
SYMATTR InstName C1
SYMATTR Value 100µ
SYMBOL res 496 64 R0
SYMATTR InstName R6
SYMATTR Value 100k
SYMBOL OpAmps\\opamp2 576 -64 R0
WINDOW 3 34 101 Left 2
SYMATTR InstName U3
SYMATTR Value TL072
SYMBOL cap 336 256 R0
SYMATTR InstName C2
SYMATTR Value 100µ
SYMBOL voltage -1152 -288 R0
WINDOW 123 0 0 Left 0
WINDOW 39 0 0 Left 0
SYMATTR InstName V5
SYMATTR Value 15
SYMBOL voltage -1024 -288 R0
WINDOW 123 0 0 Left 0
WINDOW 39 0 0 Left 0
SYMATTR InstName V6
SYMATTR Value -15
SYMBOL res 640 -144 R90
WINDOW 0 0 56 VBottom 2
WINDOW 3 -28 7 VTop 2
SYMATTR InstName R7
SYMATTR Value 60k
SYMBOL res 480 -272 R0
SYMATTR InstName R8
SYMATTR Value 1k
SYMBOL res -992 192 R90
WINDOW 0 0 56 VBottom 2
WINDOW 3 32 56 VTop 2
SYMATTR InstName R9
SYMATTR Value 600k
SYMBOL res -928 336 R180
WINDOW 0 36 76 Left 2
WINDOW 3 36 40 Left 2
SYMATTR InstName R10
SYMATTR Value 1k
SYMBOL OpAmps\\opamp2 -880 128 R0
WINDOW 3 -127 8 Left 2
SYMATTR InstName U4
SYMATTR Value TL072
SYMBOL res -1184 1008 R0
SYMATTR InstName R11
SYMATTR Value 1k
SYMBOL res -1184 704 R0
SYMATTR InstName R12
SYMATTR Value 1k
SYMBOL res -1184 816 R0
SYMATTR InstName R13
SYMATTR Value 11k
SYMBOL res -976 800 R90
WINDOW 0 0 56 VBottom 2
WINDOW 3 32 56 VTop 2
SYMATTR InstName R14
SYMATTR Value 100k
SYMBOL res -976 976 R90
WINDOW 0 0 56 VBottom 2
WINDOW 3 32 56 VTop 2
SYMATTR InstName R15
SYMATTR Value 100k
SYMBOL res -720 832 R90
WINDOW 0 0 56 VBottom 2
WINDOW 3 -32 0 VTop 2
SYMATTR InstName R5
SYMATTR Value 100k
TEXT -88 -152 Left 2 !.include TL072.lib
TEXT -88 -104 Left 2 !.tran 0 12m 10m
TEXT -1168 -16 Left 2 ;attenuation of 600. brings the signal down to 5mV
TEXT -1368 552 Left 2 ;control voltage, 11V fixed + (0-3.3V scaled down to 0-1.1V), \ninverting, gives (roughly) the range from negative 11-12V.
